<?xml version='1.0' encoding='utf-8'?>
<routes xmlns:xsi="http://www.w3.org/2001/XMLSchema-instance" xsi:noNamespaceSchemaLocation="http://sumo.dlr.de/xsd/routes_file.xsd">
    <vehicle id="low_demand_467" depart="3.60" departLane="best" departPos="last" color="red">
        <route edges="-351972802#0 -463252777 -37127681#1 -37127681#0 538608197#2" />
    </vehicle>
    <vehicle id="low_demand_149" depart="4.26" departLane="best" departPos="last" color="red">
        <route edges="-463252780 -265592590 538608173#2 538608173#3 538608173#4 954864901#0 E19 459143633#0 459143633#0.26 459143633#0.26.421 136004889 136004889.148 136004889.221 136004889.359 136004881#1 136004881#2 136011041 875004395#3-AddedOnRampEdge 875004395#3 458883922#0 458883922#1 458883922#2" />
    </vehicle>
    <vehicle id="low_demand_874" depart="11.99" departLane="best" departPos="last" color="red">
        <route edges="126463204#7 126463204#8 571017082#0 571017082#0-AddedOffRampEdge 571017082#1 571017082#2 571017082#3 589463599#1-AddedOnRampEdge 589463599#3 589463599#4 589463599#5 954864896 538608155 954864898 538608197#1 538608197#2 538608197#3 576684241#0 459085942#0 459085942#1 E1 459085942#4 -198406292#1" />
    </vehicle>
    <vehicle id="low_demand_3436" depart="12.53" departLane="best" departPos="last" color="red">
        <route edges="99988882#10 -100288873#5 -100288873#3.179 115625972#3 115625972#3.17 115625972#3.220 115625972#4 459143633#0 459143633#0.26 459143633#0.26.421 136004889 136004889.148 136004889.221 476664219#3.107 476664219#4 476664219#5 458891623#7 458891623#8 458891623#9 458891623#12 458891623#13 458891623#14-AddedOnRampEdge 458891623#14" />
    </vehicle>
    <vehicle id="low_demand_2424" depart="13.20" departLane="best" departPos="last" color="red">
        <route edges="-124873236#4 -124873236#3 -124873236#1 -583835565.3 834261716#1 834261716#2-AddedOnRampEdge 834261716#2 131320051#0 131320051#1 131320051#3 131320115 131321109 816201527#1 816201527#1-AddedOffRampEdge 459085946#4 459085946#5 831087540 577406972#1 E0 E0.148.14 E0.148.32 577406972#5 459085947 459085943#1-AddedOnRampEdge 576684242#0 576684242#1 576684242#2 576684242#3 576684242#5 538608173#0 538608173#1 538608173#2 538608173#3 -266227878#1 -266227878#0 -265592587#1" />
    </vehicle>
    <vehicle id="low_demand_1560" depart="13.46" departLane="best" departPos="last" color="red">
        <route edges="458891623#2 28621532#0 28621532#2 28621532#3 37132266#0 37132266#1 37132266#2 37132266#4 184446506#0 184446506#5 337493840#0 337493840#1 337493840#10 337493840#2 -485149354#3 -485149354#1-AddedOnRampEdge -203427238 -124873236#7 -124873236#5 -124873236#4 -124873236#3 -124873236#1 -583835565.3 834261716#1 834261716#2-AddedOnRampEdge 834261716#2 131320051#0 131320051#1 131320388#1 E11" />
    </vehicle>
    <vehicle id="low_demand_440" depart="14.38" departLane="best" departPos="last" color="red">
        <route edges="485149336#1 485149336#10 -574483195#1 -574483195#0 -100289010#0 126463204#5 126463204#6 126463204#7 126463204#8 571017082#0 571017082#0-AddedOffRampEdge 571017083#0 571017083#1 571017083#2 571017083#3 571017083#4 571017087 28621534#2 28621534#3 28621534#4 28621534#4-AddedOffRampEdge" />
    </vehicle>
    <vehicle id="low_demand_2476" depart="15.70" departLane="best" departPos="last" color="red">
        <route edges="E0 E0.148.14 E0.148.32 577406972#5 459085947 459085943#1-AddedOnRampEdge 576684242#0 576684242#1 576684242#2 576684242#3 576684242#5 538608173#0 538608173#1 538608173#2 890791637#4 -569688450 -463252778#1 -181190803#1 -181190803#0 351972805#0 351972805#1 351972805#2 115625972#4" />
    </vehicle>
    <vehicle id="low_demand_257" depart="18.34" departLane="best" departPos="last" color="red">
        <route edges="569688462 -374644409#0 265592587#1 -569688469#4 -569688469#2 -569688469#2.51 -569688469#1 -569688469#0 37132266#4 184446506#0 184446506#5 -475633267#6 -475633267#3 896111030#0 896111030#0-AddedOffRampEdge 896111034 458883924#1 458883924#2 458883924#3 458883924#4 476637845 476637845-AddedOffRampEdge 136007012#1 136007012#1-AddedOffRampEdge 136007012#2 441574379#0-AddedOnRampEdge 441574379#0 441574379#0-AddedOffRampEdge" />
    </vehicle>
    <vehicle id="low_demand_3212" depart="18.65" departLane="best" departPos="last" color="red">
        <route edges="476507479#3 589463599#0 589463599#1-AddedOnRampEdge 589463599#3 589463599#4 589463599#5 954864896 538608155 954864898 538608197#1 538608197#2 351972808#1 351972802#0 351972802#1 351972811 181190803#0 181190803#1" />
    </vehicle>
    <vehicle id="low_demand_925" depart="21.04" departLane="best" departPos="last" color="red">
        <route edges="459085943#0 459085943#1-AddedOnRampEdge 576684242#0 576684242#1 576684242#2 576684242#3 576684242#5 538608173#0 538608173#1 538608173#2 890791637#4 -569688450 -463252778#1 -181190803#1 -181190803#0 -351972811 181190799#0 181190799#1 181190799#2 181190799#3 181190799#6 181190798 116428904#0 116428904#5 114412857#2 114379345#0 124873236#4" />
    </vehicle>
    <vehicle id="low_demand_796" depart="21.35" departLane="best" departPos="last" color="red">
        <route edges="485149354#5 485149354#7 458883920#0 458883920#0.51 458883920#0.51.66 441579299#4 441579299#5 441579299#7 441579299#9 441579299#12 441579299#13.109 441579299#14 441579299#15 441579299#15.88 441579299#17 441579299#18 441579299#19 441579299#20 441579299#20.213 571017082#0 571017082#0-AddedOffRampEdge 571017083#0 571017083#1 571017083#2 -611514082#1" />
    </vehicle>
    <vehicle id="low_demand_1148" depart="23.22" departLane="best" departPos="last" color="red">
        <route edges="-611514082#1 611514082#1 611514082#2 571017082#2 571017082#3 589463599#1-AddedOnRampEdge -265833077#2 -265833077#1 -265833077#0 -28621533#3 -28621533#2 -28621533#2.23 -810151825#1 -810151825#1.79 810151824 441579299#20 441579299#20.213 441579299#22 441579299#22-AddedOffRampEdge 611514024#0 611514024#1 611514024#2-AddedOnRampEdge 611514024#2 222770436 422059627#2 422059627#3" />
    </vehicle>
    <vehicle id="low_demand_2738" depart="25.83" departLane="best" departPos="last" color="red">
        <route edges="458883920#0 458883920#0.51 458883920#0.51.66 441579299#4 441579299#5 896111030#0 896111030#0-AddedOffRampEdge 896111034 458883924#1 458883924#2 136011293 -136004889.221 -136004889.221.207 -37132266#4 -37132266#3 -37132266#1 -37132266#0 28621533#0 28621533#1 28621533#2 28621533#20 28621533#3 126463204#7 126463204#8 458891623#1 458891623#2 458891623#3 458891623#5 458891623#6 458891623#6.319" />
    </vehicle>
    <vehicle id="low_demand_135" depart="26.40" departLane="best" departPos="last" color="red">
        <route edges="576684247 -281244893#1 -281244893#0 -351972805#0 -351972811 181190799#0 181190799#1 181190799#2 181190799#3 181190799#6 181190798 116428904#0 -115625972#1 -115625972#1.19 -115625969 E12 816201529#2 131320140#1-AddedOnRampEdge 834261713#0 834261713#0-AddedOffRampEdge 476664235 834261716#2-AddedOnRampEdge 834261716#2 131320051#0 131320051#1" />
    </vehicle>
    <vehicle id="low_demand_2761" depart="26.55" departLane="best" departPos="last" color="red">
        <route edges="589463599#0 589463599#1-AddedOnRampEdge 589463599#3 589463599#4 589463599#5 954864896 538608155 954864898 538608197#1 538608197#2 538608197#3 576684241#0 459085942#0 459085942#1 E1 459085942#4 -198406292#1 -198406292#0 -198406292#00 116428904#0 116428904#5 114412857#2 114379345#0 -124873236#3 -124873236#1 -583835565.3 834261717#0 834261717#1-AddedOnRampEdge 834261717#1" />
    </vehicle>
    <vehicle id="low_demand_2304" depart="26.70" departLane="best" departPos="last" color="red">
        <route edges="-115625972#1 -115625972#1.19 -115625969 E12 816201529#2 131320140#1-AddedOnRampEdge 834261713#0 834261713#0-AddedOffRampEdge 834261713#1 583835565.3.34 124873236#1 124873236#2 124873236#4 124873236#5 124873236#7 485149342#0 485149342#0.168 538608185#1.26 538608185#3 890791639#0.32 E14 459143633#0 459143617#7 E21 476664219#0.40.16 476664219#2" />
    </vehicle>
    <vehicle id="low_demand_355" depart="29.67" departLane="best" departPos="last" color="red">
        <route edges="136004889 136004889.148 -37132266#4 -37132266#3 -37132266#1 -37132266#0 37127680#0 37127680#1.88 37127680#1.119 37127680#2 37127680#3 265592586#0 890791637#6 -37127682#1 -37127682#0" />
    </vehicle>
    <vehicle id="low_demand_1932" depart="31.96" departLane="best" departPos="last" color="red">
        <route edges="267226974#6 28621532#0 28621532#2 28621532#3 37127680#0 37127680#1.88 37127680#1.119 37127680#2 37127680#3 265592586#0 538608173#2" />
    </vehicle>
    <vehicle id="low_demand_2747" depart="36.40" departLane="best" departPos="last" color="red">
        <route edges="350455646#0 350455646#1 37127682#0 37127682#1 890791637#7 126463204#0 126463204#1 126463204#4 126463204#5 126463204#6 -28621533#3 -28621533#2 -28621533#2.23 -28621533#1 -28621533#0 37132266#0 100288923#0" />
    </vehicle>
    <vehicle id="low_demand_2246" depart="36.87" departLane="best" departPos="last" color="red">
        <route edges="126463204#8 571017082#0 571017082#0-AddedOffRampEdge 571017082#1 571017082#2 571017082#3 589463599#1-AddedOnRampEdge 589463599#3 589463599#4 589463599#5 954864896 538608155 954864898 538608197#1 538608197#2 538608197#3 576684241#0 459085942#0 459085942#1 E1 459085942#4 -198406292#1 -198406292#0 -198406292#00 116428904#0 -115625972#1 -115625972#1.19 -115625969 -135980035#1.101 -135980035#1.101.25" />
    </vehicle>
    <vehicle id="low_demand_2820" depart="39.00" departLane="best" departPos="last" color="red">
        <route edges="99989668 131319143 131320140#1-AddedOnRampEdge 834261713#0 834261713#0-AddedOffRampEdge 476664235 834261716#2-AddedOnRampEdge 834261716#2 131320051#0 131320051#1 131320051#3 131320115 131321109 816201527#1 816201527#1-AddedOffRampEdge 459085946#4 459085946#5 831087540 577406972#1 E0 E0.148.14 E0.148.32 577406972#5 459085947 459085943#1-AddedOnRampEdge 576684242#0 576684242#1 576684242#2 576684242#3 576684242#5 589463597#1 589463597#1.103 589463597#2 589463597#3-AddedOnRampEdge 589463597#9 589463597#10 422059627#0 422059627#0-AddedOffRampEdge 422059627#1 422059627#2 422059627#3 476507478 422073425#0 422073425#1-AddedOnRampEdge" />
    </vehicle>
    <vehicle id="low_demand_3293" depart="39.02" departLane="best" departPos="last" color="red">
        <route edges="265592588#0 37127681#1 -350455646#1 -350455646#0 -463252779 -265592590 538608173#2 538608173#3 538608173#4 538608173#7 459143642 890791636 844894037#0 844894037#4 844894037#10 485149342#4.28 485149342#6 485149354#1-AddedOnRampEdge" />
    </vehicle>
    <vehicle id="low_demand_1536" depart="45.28" departLane="best" departPos="last" color="red">
        <route edges="30549871#1 -100288873#5 -100288873#3.179 115625972#3 115625972#3.17 115625972#3.220 115625972#4 E18.23 954864900#3-AddedOnRampEdge 890791637#1 890791637#2 890791637#3 890791637#4 890791637#5 890791637#6 890791637#7 126463204#0 126463204#1 126463204#4 126463204#5 126463204#6 265833077#0 265833077#1 -267492667#2 267492667#2" />
    </vehicle>
    <vehicle id="low_demand_503" depart="47.91" departLane="best" departPos="last" color="red">
        <route edges="203427238 485149354#1-AddedOnRampEdge 485149354#3 -337493840#2 -337493840#1 -337493840#1.68 -337493840#0 -184446506#6 -184446506#4 -136004889 -1360048890 -459143633#0.26.421 -459143633#0.497 -459143633#0.835 -115625972#4 -115625972#4.29 -115625972#3 -115625972#3.177 -115625972#2 -115625972#2.25 -115625972#2.603 -115625972#1 -115625972#1.19 -115625969 E13 131320387#1.19 816201527#1 816201527#1-AddedOffRampEdge 459085946#4 459085946#5 831087540 577406972#1 E0 E0.148.14 E0.148.32 577406972#5 459085947 459085943#1-AddedOnRampEdge 576684242#0 576684242#1 576684242#2" />
    </vehicle>
    <vehicle id="low_demand_2316" depart="49.13" departLane="best" departPos="last" color="red">
        <route edges="890791637#4 -569688450 463252778#2 350455646#0 576684244 351972802#1 351972811" />
    </vehicle>
    <vehicle id="low_demand_564" depart="52.53" departLane="best" departPos="last" color="red">
        <route edges="224498682 875004395#1-AddedOnRampEdge 875004395#1 875004395#2 875004395#3-AddedOnRampEdge 875004395#3 458883922#0 25373582 -136004881#2 -136004881#1 -136004889.221 -136004889.221.207 -37132266#4 -37132266#3 -37132266#1 -37132266#0 28621533#0 -432305392#2 -432305392#0" />
    </vehicle>
    <vehicle id="low_demand_2765" depart="52.83" departLane="best" departPos="last" color="red">
        <route edges="114379345#0 124873236#4 124873236#5 124873236#7 485149342#0 485149342#0.168 538608185#1.26 538608185#3 890791639#0.32 E14 E18.23 954864900#3-AddedOnRampEdge 890791637#1 890791637#2 890791637#3 890791637#4 890791637#5 890791637#6 890791637#7 126463204#0 126463204#1 126463204#4 126463204#5 126463204#6 126463204#7 126463204#8 458891623#1 458891623#2 458891623#3 896111032" />
    </vehicle>
    <vehicle id="low_demand_1262" depart="54.44" departLane="best" departPos="last" color="red">
        <route edges="-124873236#5 -124873236#4 -124873236#3 -124873236#1 -583835565.3 834261716#1 834261716#2-AddedOnRampEdge 834261716#2 131320051#0 131320051#1 131320388#1 E11 816201529#2 131320140#1-AddedOnRampEdge 834261713#0 834261713#0-AddedOffRampEdge 834261713#1 583835565.3.34 124873236#1 124873236#2 124873236#4 124873236#5 124873236#7 203427238 485149354#1-AddedOnRampEdge 485149354#3 485149354#5 485149354#7 458883920#0 458883920#0.51 458883920#0.51.66 441579299#4 441579299#5 896111030#0 896111030#0-AddedOffRampEdge 896111034 458883924#1 458883924#2 458883924#3" />
    </vehicle>
    <vehicle id="low_demand_2963" depart="54.62" departLane="best" departPos="last" color="red">
        <route edges="-351972808#1 538608197#3 576684240#0 345684839 -463252777 37127682#0 37127682#1 890791637#7 126463204#0 126463204#1 126463204#4 126463204#5 126463204#6 -28621533#3 -28621533#2 -28621533#2.23 -28621533#1 28621533#1 28621533#2" />
    </vehicle>
    <vehicle id="low_demand_27" depart="58.19" departLane="best" departPos="last" color="red">
        <route edges="372587455 -100288869#5 -337493840#0 -475633267#6 -475633267#3 896111030#0 896111030#0-AddedOffRampEdge" />
    </vehicle>
    <vehicle id="low_demand_2276" depart="61.06" departLane="best" departPos="last" color="red">
        <route edges="-115625972#1 -115625972#1.19 -115625969 E12 816201529#2 131320140#1-AddedOnRampEdge 834261713#0 834261713#0-AddedOffRampEdge 834261713#1 583835565.3.34 124873236#1 124873236#2 124873236#4 124873236#5 124873236#7 203427238 485149354#1-AddedOnRampEdge 485149354#3 485149354#5 485149354#7 458883920#0 458883920#0.51 458883920#0.51.66 441579299#4 441579299#5 896111030#0 896111030#0-AddedOffRampEdge 896111034 458883924#1 458883924#2" />
    </vehicle>
    <vehicle id="low_demand_193" depart="61.24" departLane="best" departPos="last" color="red">
        <route edges="538608173#1 538608173#2 538608173#3 538608173#4 954864901#0 E19 459143633#0 459143633#0.26 459143633#0.26.421 136004889 136004889.148 184446506#0 184446506#5 337493840#0 337493840#1 337493840#10 337493840#2 485149354#5 485149354#7 458883920#0 458883920#0.51 458883920#0.51.66 458891623#16" />
    </vehicle>
    <vehicle id="low_demand_1305" depart="63.99" departLane="best" departPos="last" color="red">
        <route edges="583835565.3.34 124873236#1 124873236#2 124873236#4 124873236#5 124873236#7 203427238 485149354#1-AddedOnRampEdge 485149354#3 -337493840#2 -337493840#1 -337493840#1.68 -337493840#0 -184446506#6 -184446506#4 -37132266#4 -37132266#3 -37132266#1 -37132266#0 28621533#0 -28621533#0 37132266#0" />
    </vehicle>
    <vehicle id="low_demand_1314" depart="65.35" departLane="best" departPos="last" color="red">
        <route edges="890791637#4 -569688450 463252778#2 -463252779 -265592590 538608173#2 538608173#3 538608173#4 538608173#7 459143642 890791636 844894037#0 844894037#4 844894037#10 485149344#4.35 485149344#4.70 -124873236#7 -124873236#5 -124873236#4 -124873236#3 -124873236#1 -583835565.3 -422310407#7.11 -422310407#7.11.17" />
    </vehicle>
    <vehicle id="low_demand_331" depart="65.81" departLane="best" departPos="last" color="red">
        <route edges="115625972#3.220 115625972#4 E16.24 890791640#3-AddedOnRampEdge 844894037#0 844894037#4 844894037#10 485149344#4.35 485149344#4.70 -124873236#7 -124873236#5 -124873236#4" />
    </vehicle>
    <vehicle id="low_demand_1037" depart="69.13" departLane="best" departPos="last" color="red">
        <route edges="-611514082#1 611514082#1 611514082#2 571017082#2 571017082#3 589463599#1-AddedOnRampEdge -265833077#2 -265833077#1 -265833077#0 -28621533#3 -28621533#2 -28621533#2.23 -810151825#1 -810151825#1.79 810151824 441579299#20 441579299#20.213 441579299#22 441579299#22-AddedOffRampEdge 611514024#0 611514024#1 611514024#2-AddedOnRampEdge 611514024#2 222770436 422059627#2 422059627#3" />
    </vehicle>
    <vehicle id="low_demand_2018" depart="70.84" departLane="best" departPos="last" color="red">
        <route edges="136004889 136004889.148 136004889.221 136004889.359 136004881#1 136004881#2 136011041 875004395#3-AddedOnRampEdge 875004395#3 458883922#0 458883922#1" />
    </vehicle>
    <vehicle id="low_demand_2766" depart="70.90" departLane="best" departPos="last" color="red">
        <route edges="115625972#3 115625972#3.17 115625972#3.220 115625972#4 E18.23 954864900#3-AddedOnRampEdge 890791637#1 890791637#2 890791637#3 890791637#4 890791637#5 890791637#6 890791637#7 890791637#7.129 589463597#1 589463597#1.103 589463597#2 589463597#3-AddedOnRampEdge 589463597#9 589463597#10 422059627#0 422059627#0-AddedOffRampEdge 222770437 611514075#2-AddedOnRampEdge 611514075#2 611514040#1" />
    </vehicle>
    <vehicle id="low_demand_2772" depart="71.80" departLane="best" departPos="last" color="red">
        <route edges="463252779 -463252778#2 -463252778#1 -265608044 890791637#3 538608173#3 538608173#4 954864901#0 E19 459143633#0 459143633#0.26 459143633#0.26.421 136004889 136004889.148 184446506#0 184446506#5 337493840#0 337493840#1 337493840#10 337493840#2 485149354#5 485149354#7 458883920#0 458883920#0.51 458883920#0.51.66" />
    </vehicle>
    <vehicle id="low_demand_311" depart="77.36" departLane="best" departPos="last" color="red">
        <route edges="459085942#5 832110479 832110478#1 816201526#1 816201526#2 131319686#0 E10 131320387#1.19 816201527#1 816201527#1-AddedOffRampEdge 459085946#4 459085946#5 831087540 577406972#1 E0 E0.148.14 E0.148.32 577406972#5 459085947 459085943#1-AddedOnRampEdge 576684242#0 576684242#1 576684242#2 576684242#3 576684242#5 589463597#1 589463597#1.103 589463597#2 589463597#3-AddedOnRampEdge 589463597#9 589463597#10 422059627#0 422059627#0-AddedOffRampEdge 222770437 611514075#2-AddedOnRampEdge" />
    </vehicle>
    <vehicle id="low_demand_1013" depart="78.45" departLane="best" departPos="last" color="red">
        <route edges="100288864#0 -337493840#1 -337493840#1.68 -337493840#0 -184446506#6 -184446506#4 -37132266#4 -37132266#3 -37132266#1 -37132266#0 28621533#0 28621533#1 28621533#2 28621533#20 28621533#3 126463204#7 126463204#8 458891623#1 458891623#2 458891623#3 896111032 875004395#1-AddedOnRampEdge" />
    </vehicle>
    <vehicle id="low_demand_2064" depart="79.07" departLane="best" departPos="last" color="red">
        <route edges="131319574#12.187.19 -459143633#0.835 E18.23 954864900#3-AddedOnRampEdge 890791637#1 890791637#2 890791637#3 890791637#4 890791637#5 890791637#6 890791637#7 126463204#0 126463204#1 126463204#4 100289010#0 574483195#0" />
    </vehicle>
    <vehicle id="low_demand_364" depart="80.44" departLane="best" departPos="last" color="red">
        <route edges="28621533#3 126463204#7 126463204#8" />
    </vehicle>
    <vehicle id="low_demand_690" depart="84.58" departLane="best" departPos="last" color="red">
        <route edges="458891623#8 458891623#9 458891623#12 458891623#13 458891623#14-AddedOnRampEdge 458891623#14 458883908#2 458883908#2.148 -485149354#7 -485149354#5 -485149354#3 -485149354#1-AddedOnRampEdge -203427238 -124873236#7 -124873236#5 -124873236#4 -124873236#3 -124873236#1 -583835565.3 834261716#1 834261716#2-AddedOnRampEdge 834261716#2 131320051#0 131320051#1 131320051#3 131320115 131321109 816201527#1 816201527#1-AddedOffRampEdge 459085946#4 459085946#5 831087540 577406972#1 -116428418#3" />
    </vehicle>
    <vehicle id="low_demand_2420" depart="92.41" departLane="best" departPos="last" color="red">
        <route edges="485149354#7 458883920#0 458883920#0.51 458883920#0.51.66 441579299#4 441579299#5 441579299#7 441579299#9 441579299#12 441579299#13.109 441579299#14 441579299#15 441579299#15.88 441579299#17 441579299#18 28621532#0 28621532#2 28621532#3 37127680#0 37127680#1.88 37127680#1.119 -485149336#1 -485149336#10 -485149336#10.27 -485149336#0 -100289010#1 -100289010#0 126463204#5" />
    </vehicle>
    <vehicle id="low_demand_3177" depart="98.89" departLane="best" departPos="last" color="red">
        <route edges="954864898 538608197#1 37127681#0 37127681#1 -350455646#1 -350455646#0 -463252779 -265592590 538608173#2 265607426#1 265607426#2 265592587#1" />
    </vehicle>
    <vehicle id="low_demand_2478" depart="99.17" departLane="best" departPos="last" color="red">
        <route edges="-28621533#1 -28621533#0 37132266#0 37132266#1 37132266#2 37132266#4 -136004889 -1360048890 -459143633#0.26.421 -459143633#0.497 -459143633#0.835 E16.24 890791640#3-AddedOnRampEdge" />
    </vehicle>
    <vehicle id="low_demand_125" depart="100.07" departLane="best" departPos="last" color="red">
        <route edges="100288857#0 100288857#0.50 100288903 -100288855#0 -100288901#1 100288864#0 -337493840#1 -337493840#1.68 -337493840#0 -184446506#6 -184446506#4 -37132266#4 -37132266#3 -37132266#1 -37132266#0 37127680#0 37127680#1.88 37127680#1.119" />
    </vehicle>
    <vehicle id="low_demand_1909" depart="101.45" departLane="best" departPos="last" color="red">
        <route edges="576684241#0 459085942#0 459085942#1 E1 459085942#4 -198406292#1 -198406292#0 -198406292#00 116428904#0 115625972#2 115625972#2.17 115625972#2.604 115625972#3 115625972#3.17 115625972#3.220 115625972#4 459143633#0 459143633#0.26 459143633#0.26.421 136004889 136004889.148 184446506#0 184446506#5 -475633267#6 -475633267#3 896111030#0 896111030#0-AddedOffRampEdge 896111034 458883924#1 458883924#2 458883924#3 458883924#4 476637845 476637845-AddedOffRampEdge 136007012#1 136007012#1-AddedOffRampEdge 136007012#2 441574379#0-AddedOnRampEdge 441574379#0" />
    </vehicle>
    <vehicle id="low_demand_753" depart="107.85" departLane="best" departPos="last" color="red">
        <route edges="458883922#1 458883922#2 571037924 458891623#12 458891623#13 458891623#14-AddedOnRampEdge 458891623#14 458883908#2 458883908#2.148 -485149354#7 -485149354#5 -485149354#3 -485149354#1-AddedOnRampEdge 485149344#0.34 485149344#0-AddedOffRampEdge.22 538608185#1.26 538608185#3 890791639#0.32 E14 -115625972#4 -115625972#4.29 -115625972#3 -115625972#3.177 -115625972#2 -115625972#2.25 -115625972#2.603" />
    </vehicle>
    <vehicle id="low_demand_3146" depart="108.37" departLane="best" departPos="last" color="red">
        <route edges="441579299#20.213 571017082#0 571017082#0-AddedOffRampEdge 571017082#1 571017082#2 571017082#3 589463599#1-AddedOnRampEdge 589463599#3 589463599#4 589463599#5 954864896 538608155 954864898 538608197#1 538608197#2 538608197#3 576684241#0 459085942#0 459085942#1 E1 459085942#4 459085942#5 832110479 832110478#1 816201526#1 816201526#2 131319686#0 E9" />
    </vehicle>
    <vehicle id="low_demand_652" depart="113.40" departLane="best" departPos="last" color="red">
        <route edges="337493840#0 337493840#1 -E36.293 -100288857#00 475633267#4 -184446506#6 -184446506#4 -37132266#4 -485149338#2 485149339#0" />
    </vehicle>
    <vehicle id="low_demand_1710" depart="116.56" departLane="best" departPos="last" color="red">
        <route edges="115625972#4 E16.24 890791640#3-AddedOnRampEdge 844894037#0 844894037#4 844894037#10 485149344#4.35 485149344#4.70 -124873236#7 -124873236#5 -124873236#4 -124873236#3 -124873236#1 -583835565.3" />
    </vehicle>
    <vehicle id="low_demand_2032" depart="119.32" departLane="best" departPos="last" color="red">
        <route edges="-5696884590 -265592587#2 -569688469#4 -569688469#2 -569688469#2.51 -569688469#1 -569688469#0 37132266#4 -136004889 -1360048890 -459143633#0.26.421 -459143633#0.497 -459143633#0.835 E16.24" />
    </vehicle>
    <vehicle id="low_demand_3055" depart="120.17" departLane="best" departPos="last" color="red">
        <route edges="441579299#22 441579299#22-AddedOffRampEdge 611514024#0 28621528 476507479#3-AddedOnRampEdge 476507479#3 589463599#0 589463599#1-AddedOnRampEdge 589463599#3 589463599#4 -345684193#5 100289006#0 100289006#1 100289006#2 265592587#0 265592587#1 -569688469#4 -569688469#2" />
    </vehicle>
    <vehicle id="low_demand_897" depart="122.93" departLane="best" departPos="last" color="red">
        <route edges="E0.148.32 577406972#5 459085947 459085943#1-AddedOnRampEdge 576684242#0 576684242#1 576684242#2 954864899 476507482 954864897" />
    </vehicle>
    <vehicle id="low_demand_1079" depart="126.57" departLane="best" departPos="last" color="red">
        <route edges="824625838#1-AddedOnRampEdge 824625838#1 824625838#1-AddedOffRampEdge 224498682 875004395#1-AddedOnRampEdge 875004395#1 875004395#2 875004395#3-AddedOnRampEdge 875004395#3 458883922#0 25373582 -136004881#2 -136004881#1 -136004889.221 -136004889.221.207 -37132266#4 -37132266#3 -37132266#1 -37132266#0 37127680#0 37127680#1.88 37127680#1.119 -485149336#1 -485149336#10 -485149336#10.27 -485149336#0 -100289010#1 -100289010#0 126463204#5 126463204#6" />
    </vehicle>
    <vehicle id="low_demand_742" depart="129.08" departLane="best" departPos="last" color="red">
        <route edges="954864897 589463597#3-AddedOnRampEdge 589463597#9 589463597#10 422059627#0 422059627#0-AddedOffRampEdge 422059627#1 422059627#2 422059629#0 422059629#1 422058789#1 476507479#1 476507479#2 476507479#3-AddedOnRampEdge 476507479#3 589463599#0 589463599#1-AddedOnRampEdge -265833077#2 -265833077#1 -265833077#0 -28621533#3 -28621533#2 -28621533#2.23 -28621533#1 -28621533#0 37132266#0 37132266#1 37132266#2 37132266#4 184446506#0 184446506#5 337493840#0 337493840#1 337493840#10 337493840#2 -485149354#3" />
    </vehicle>
    <vehicle id="low_demand_1813" depart="130.01" departLane="best" departPos="last" color="red">
        <route edges="100289006#2 265592586#0 265592590 463252779 350455646#0 576684244 351972802#1 181190799#0 181190799#1 181190799#2 181190799#3 181190799#6 181190798 116428904#0 115625972#2 115625972#2.17 115625972#2.604 115625972#3 115625972#3.17 115625972#3.220" />
    </vehicle>
    <vehicle id="low_demand_3204" depart="133.90" departLane="best" departPos="last" color="red">
        <route edges="37127680#0 37127680#1.88 37127680#1.119 37127680#2 37127680#3 265592586#0 265592590 463252779 350455646#0 350455646#1 -37127681#1 -37127681#0 538608197#2 538608197#3 576684241#0 459085942#0 459085942#1 E1 459085942#4 459085942#5 832110479 832110478#1 816201526#1 816201526#2 816201526#3 99989668 131319143 131320140#1-AddedOnRampEdge 834261713#0 834261713#0-AddedOffRampEdge 834261713#1 583835565.3.34 124873236#1 -114412854" />
    </vehicle>
    <vehicle id="low_demand_245" depart="134.72" departLane="best" departPos="last" color="red">
        <route edges="441579299#7 441579299#9 441579299#12 441579299#13.109 131319574#3 -136004889.221.207 -136004889 -1360048890 -459143633#0.26.421 -459143633#0.497 -459143633#0.835 -115625972#4 -115625972#4.29 -115625972#3 -115625972#3.177 -115625972#2 -115625972#2.25 -115625972#2.603 -115625972#1 -115625972#1.19 -115625969 E13 131320387#1.19 816201527#1 816201527#1-AddedOffRampEdge 459085946#4 459085946#5 831087540 577406972#1 E0 E0.148.14 E0.148.32 577406972#5 459085947 459085943#1-AddedOnRampEdge 576684242#0 576684242#1 576684242#2 954864899 476507482 954864897" />
    </vehicle>
    <vehicle id="low_demand_2898" depart="136.65" departLane="best" departPos="last" color="red">
        <route edges="-265833077#1 -265833077#0 -28621533#3 -28621533#2 -28621533#2.23 -28621533#1 -28621533#0 37132266#0 37132266#1 37132266#2 37132266#4 184446506#0 184446506#5 -475633267#6 -475633267#3 896111030#0 896111030#0-AddedOffRampEdge 896111034 458883924#1 458883924#2" />
    </vehicle>
    <vehicle id="low_demand_1157" depart="137.22" departLane="best" departPos="last" color="red">
        <route edges="576684241#0 459085942#0 459085942#1 E1 459085942#4 -198406292#1 -198406292#0 -198406292#00 116428904#0 115625972#2 115625972#2.17 115625972#2.604 115625972#3 115625972#3.17 115625972#3.220 115625972#4 459143633#0 459143633#0.26 459143633#0.26.421 136004889 136004889.148 184446506#0 184446506#5 -475633267#6 -475633267#3 896111030#0 896111030#0-AddedOffRampEdge 896111034 458883924#1 458883924#2 458883924#3 458883924#4 476637845 476637845-AddedOffRampEdge 136007012#1 136007012#1-AddedOffRampEdge 136007012#2 441574379#0-AddedOnRampEdge 441574379#0" />
    </vehicle>
    <vehicle id="low_demand_1828" depart="139.88" departLane="best" departPos="last" color="red">
        <route edges="281244893#3 181190799#6 181190798 116428904#0 -115625972#1 -115625972#1.19 -115625969" />
    </vehicle>
    <vehicle id="low_demand_960" depart="141.08" departLane="best" departPos="last" color="red">
        <route edges="-5696884590 -265592587#2 -569688469#4 -569688469#2 -569688469#2.51 -569688469#1 -569688469#0 37132266#4 -136004889 -1360048890 -459143633#0.26.421 -459143633#0.497 -459143633#0.835 E16.24" />
    </vehicle>
    <vehicle id="low_demand_3312" depart="141.84" departLane="best" departPos="last" color="red">