<?xml version='1.0' encoding='utf-8'?>
<configuration>
    <input>
        <net-file value="../chengdu.net.xml" />
        <route-files value="chengdu_leftturn_surge.rou.xml" />
    </input>
    <time>
        <begin value="0" />
        <end value="3599.75" />
    </time>
    <report>
        <no-warnings value="true" />
        <no-step-log value="true" />
    </report>
</configuration>